V1 N001 0 SINE(0 5 100)
R1 N002 N001 10k
C1 N002 0 1µ
.tran 0 100000 0 1
.end