R1 N002 N001 1k
C1 N002 0 1
V1 N001 0 5
.tran 0 10000 100
.end