D1 N002 N003 D
R1 N002 N001 2k
R2 0 N003 3k
V1 N001 0 SINE(0 5 1)
R3 N004 0 4k
I1 N004 N003 SINE(0 10m 1.5)
.tran 0 10 0 0.001