R1 N002 N001 10k
R2 N002 0 10k
R3 N002 N003 10k
D1 N003 0 D
V1 N001 0 SINE(2 5 1000)
.tran 0 10m 1u
.end