R1 N002 N001 10k
R2 N002 0 10k
R3 N002 N003 10k
D1 N003 0 D
L1 N004 0 1m
R4 N005 N004 10k
I1 0 N001 SINE(0 1m 1000)
C1 N005 0 1µ
V1 N002 N005 10
R5 N005 N002 10k
.tran 0 10m 1u
.end
