I1 0 N001 10m
R1 N002 N001 10k
R2 N002 0 10k
R3 N002 N003 10k
L1 N003 0 1m
C1 N002 0 5µ
.tran 0 1 1u
.end