C1 N002 N001 1µ
R1 N002 0 5k
V1 N001 0 SINE(0 5 10)
.tran 0 1000 0 0.025
.end