V1 N001 0 SINE(2 3 1.5)
R1 N002 N001 3k
R2 N003 0 2k
C1 N002 N003 50m
L1 N004 N002 100m
R3 N004 N005 5k
I1 0 N005 SINE(0 10m 1)
.tran 0 5 0 0.01
.end