I1 0 N001 SINE(0 10m 1)
R1 N002 N001 1k
R2 N003 0 3k
L1 N002 N003 100m
.tran 0 10 0 0.000001