R1 N002 N001 1k
C1 N002 0 1u
V1 N001 0 5
.tran 0 10 0.1
.end