R1 N002 N001 1k
C1 N002 0 1µ
V1 N001 0 SINE(0 1 1)
.tran 0 5 0.00001
.end