C1 N002 N001 1µ
R1 N002 0 5k
V1 N001 0 SINE(0 5 10000)
.tran 0 100u 0 25u
.end